<?xml version="1.0" encoding="UTF-8"?>

<!-- generated on 2024-07-29 08:34:17 by Eclipse SUMO netedit Version v1_20_0+1477-74e6394f715
-->

<additional xmlns:xsi="http://www.w3.org/2001/XMLSchema-instance" xsi:noNamespaceSchemaLocation="http://sumo.dlr.de/xsd/additional_file.xsd">
    <!-- StoppingPlaces -->
    <busStop id="bs_0" lane="E0_0" startPos="45.00" endPos="55.00"/>
    <busStop id="bs_1" lane="E1_0" startPos="25.00" endPos="35.00"/>
    <busStop id="bs_2" lane="-E2_0" startPos="25.00" endPos="35.00"/>
    <chargingStation id="cs_0" lane="-E1_0" startPos="25.00" endPos="35.00"/>
    <chargingStation id="cs_1" lane="E2_0" startPos="25.00" endPos="35.00"/>
    <!-- Detectors -->
    <inductionLoop id="e1_0" lane="E0_0" pos="10.00" period="300.00" file="e1_0.xml"/>
</additional>
