<?xml version="1.0" encoding="UTF-8"?>

<!-- generated on 2024-07-29 08:33:53 by Eclipse SUMO netedit Version v1_20_0+1477-74e6394f715
-->

<routes xmlns:xsi="http://www.w3.org/2001/XMLSchema-instance" xsi:noNamespaceSchemaLocation="http://sumo.dlr.de/xsd/routes_file.xsd">
    <!-- Routes -->
    <route id="r_0" edges="E0"/>
    <!-- Vehicles, persons and containers (sorted by depart) -->
    <trip id="t_0" depart="0.00" from="E1" to="-E1"/>
    <trip id="t_1" depart="0.00" from="E2" to="-E2"/>
    <vehicle id="v_0" depart="0.00" route="r_0"/>
</routes>
